*Heading
** Job name: Sphere_test Model name: Model-1
** Generated by: Abaqus/CAE 6.13-1
*Preprint, echo=NO, model=NO, history=NO, contact=NO
**
** PARTS
**
*Part, name=Solid
*End Part
**  
*Part, name=sphere
*Node
      1,   4.94896173,   47.4000015
      2,   13.4830341,   47.4000015
      3,   17.1529865,   47.4000015
      4,   23.4815159,   47.4000015
      5,   28.6663361,   47.4000015
      6,   34.7408485,   47.4000015
      7,   41.5813828,   47.4000015
      8,           0.,   47.4000015
      9,   47.4000015,   47.4000015
     10,           0.,   42.4510384
     11,           0.,   33.9169655
     12,           0.,   30.2470131
     13,           0.,   23.9184837
     14,           0.,   18.7336636
     15,           0.,   12.6591511
     16,           0.,   5.81861734
     17,           0.,           0.
     18,   46.8846741,   40.4295273
     19,   45.4927444,   34.0894699
     20,   43.0407562,   27.5441837
** ... 2363 like lines cut
*Element, type=CAX3
 1, 2182,  432,  501
 2, 1445, 1194, 1195
 3, 1543, 1439, 1309
 4, 2234, 1122,  979
 5, 1492, 1279, 1263
 6, 1343, 1224, 1215
 7, 1531, 1429, 1620
 8, 1369, 1469, 1482
 9, 1537, 1438, 1434
10, 1613, 1440, 1316
11, 1490, 1358, 1380
12, 2358, 1478, 1539
13, 1800, 2361, 1587
14, 1682, 1526, 1602
15, 1618, 1588, 1498
16, 1647, 1645, 1444
17, 1556, 1449, 1326
18, 2342, 1782, 1578
19, 2361, 1671, 1585
20, 1602, 1512, 1590
** ... 41 like lines cut
*Element, type=CAX4
  62,   89,  316,  257,   90
  63,  359,  100,   99,  296
  64,  112,  232,  282,   19
  65,   20,  275,  273,  126
  66,  279,  137,  136,  328
  67, 1788, 2353, 1707, 1862
  68, 1742, 1657, 1558, 1654
  69,  901, 1203, 1332, 1055
  70,  395,  743, 1204, 2172
  71,   74,  393,  395,   13
  72,   75,  390,  391,   14
  73,  563,  565,  390,  387
  74,   77,  383,  385,   15
  75,  347,  300,  539,  414
  76,  200,  361,  321,   26
  77,  475,  477,  322,  352
  78,  364,  187,  186,  284
  79,  247,  174,  173,  246
  80, 1706, 1712, 1609, 1570
  81, 1742, 1823, 1816, 1743
** ... 2233 like lines cut
*Nset, nset=_PickedSet3, internal, generate
    1,  2383,     1
*Elset, elset=_PickedSet3, internal, generate
    1,  2314,     1
*Elset, elset=_Sphere_Surface_S4, internal
  62,  64,  65,  76, 115, 164, 165, 166, 170, 171, 173, 174, 176, 179, 180, 184
 185, 188, 189, 190, 194, 195, 196, 197, 199, 201, 203, 206, 207, 211, 217, 219
 221, 226, 228, 229, 235, 236, 241, 242, 246, 250, 251, 253, 256, 257, 258, 259
 260, 264, 265, 269, 272, 278, 279, 280, 281, 282, 288, 304, 314, 318, 322, 335
 339, 358, 378, 384, 392
*Elset, elset=_Sphere_Surface_S2, internal
  63,  66,  78,  79, 122, 147, 162, 163, 168, 169, 177, 178, 182, 183, 187, 192
 193, 202, 205, 209, 210, 214, 215, 216, 218, 223, 224, 225, 231, 233, 234, 237
 239, 240, 244, 245, 248, 254, 255, 262, 263, 267, 270, 271, 275, 276, 277, 283
 285, 290, 292, 295, 296, 299, 300, 303, 306, 307, 308, 309, 311, 320, 324, 326
 333, 340, 343, 344, 348, 351, 352, 360, 362, 364, 369, 379, 382, 394, 395, 400
*Surface, type=ELEMENT, name=Sphere_Surface
_Sphere_Surface_S4, S4
_Sphere_Surface_S2, S2
** Section: Sphere
*Solid Section, elset=_PickedSet3, material=Material-1
,
*End Part
**  
**
** ASSEMBLY
**
*Assembly, name=Assembly
**  
*Instance, name=Solid-1, part=Solid
*Node
      1,           0.,           0.,           0.
*Nset, nset=Solid-1-RefPt_, internal
1, 
*Surface, type=SEGMENTS, name=Solid_Surface
START,           0.,           0.
 LINE,          50.,           0.
*Rigid Body, ref node=Solid-1-RefPt_, analytical surface=Solid_Surface
*End Instance
**  
*Instance, name=sphere-1, part=sphere
          0.,           3.,           0.
*End Instance
**  
*Nset, nset=Lower, instance=sphere-1
   9,  17,  18,  19,  20,  21,  22,  23,  24,  25,  26,  27,  88,  89,  90,  91
  92,  93,  94,  95,  96,  97,  98,  99, 100, 101, 102, 103, 104, 105, 106, 107
 108, 109, 110, 111, 112, 113, 114, 115, 116, 117, 118, 119, 120, 121, 122, 123
 124, 125, 126, 127, 128, 129, 130, 131, 132, 133, 134, 135, 136, 137, 138, 139
 140, 141, 142, 143, 144, 145, 146, 147, 148, 149, 150, 151, 152, 153, 154, 155
 156, 157, 158, 159, 160, 161, 162, 163, 164, 165, 166, 167, 168, 169, 170, 171
 172, 173, 174, 175, 176, 177, 178, 179, 180, 181, 182, 183, 184, 185, 186, 187
 188, 189, 190, 191, 192, 193, 194, 195, 196, 197, 198, 199, 200, 201, 202, 203
 204, 205, 206, 207, 208, 209, 210, 211, 212, 213, 214, 215, 216, 217, 218, 219
 220, 221, 222, 223, 224, 225
*Elset, elset=Lower, instance=sphere-1
  62,  63,  64,  65,  66,  76,  78,  79, 115, 122, 147, 162, 163, 164, 165, 166
 168, 169, 170, 171, 173, 174, 176, 177, 178, 179, 180, 182, 183, 184, 185, 187
 188, 189, 190, 192, 193, 194, 195, 196, 197, 199, 201, 202, 203, 205, 206, 207
 209, 210, 211, 214, 215, 216, 217, 218, 219, 221, 223, 224, 225, 226, 228, 229
 231, 233, 234, 235, 236, 237, 239, 240, 241, 242, 244, 245, 246, 248, 250, 251
 253, 254, 255, 256, 257, 258, 259, 260, 262, 263, 264, 265, 267, 269, 270, 271
 272, 275, 276, 277, 278, 279, 280, 281, 282, 283, 285, 288, 290, 292, 295, 296
 299, 300, 303, 304, 306, 307, 308, 309, 311, 314, 318, 320, 322, 324, 326, 333
 335, 339, 340, 343, 344, 348, 351, 352, 358, 360, 362, 364, 369, 378, 379, 382
 384, 392, 394, 395, 400
*Nset, nset=Ref_Point, instance=Solid-1
 1,
*Nset, nset=Upper, instance=sphere-1
  1,  2,  3,  4,  5,  6,  7,  8,  9, 56, 57, 58, 59, 60, 61, 62
 63, 64, 65, 66, 67, 68, 69, 70, 71
*Elset, elset=Upper, instance=sphere-1
  85,  90,  95,  99, 104, 107, 112, 138, 139, 140, 141, 142, 143, 144, 145, 149
 164, 385, 386, 431, 584, 586, 588, 794
*Nset, nset=_PickedSet11, internal, instance=Solid-1
 1,
*Nset, nset=_PickedSet12, internal, instance=sphere-1
  1,  2,  3,  4,  5,  6,  7,  8,  9, 56, 57, 58, 59, 60, 61, 62
 63, 64, 65, 66, 67, 68, 69, 70, 71
*Elset, elset=_PickedSet12, internal, instance=sphere-1
  85,  90,  95,  99, 104, 107, 112, 138, 139, 140, 141, 142, 143, 144, 145, 149
 164, 385, 386, 431, 584, 586, 588, 794
*Elset, elset=__PickedSurf10_S4, internal, instance=sphere-1
  62,  64,  65,  76, 115, 164, 165, 166, 170, 171, 173, 174, 176, 179, 180, 184
 185, 188, 189, 190, 194, 195, 196, 197, 199, 201, 203, 206, 207, 211, 217, 219
 221, 226, 228, 229, 235, 236, 241, 242, 246, 250, 251, 253, 256, 257, 258, 259
 260, 264, 265, 269, 272, 278, 279, 280, 281, 282, 288, 304, 314, 318, 322, 335
 339, 358, 378, 384, 392
*Elset, elset=__PickedSurf10_S2, internal, instance=sphere-1
  63,  66,  78,  79, 122, 147, 162, 163, 168, 169, 177, 178, 182, 183, 187, 192
 193, 202, 205, 209, 210, 214, 215, 216, 218, 223, 224, 225, 231, 233, 234, 237
 239, 240, 244, 245, 248, 254, 255, 262, 263, 267, 270, 271, 275, 276, 277, 283
 285, 290, 292, 295, 296, 299, 300, 303, 306, 307, 308, 309, 311, 320, 324, 326
 333, 340, 343, 344, 348, 351, 352, 360, 362, 364, 369, 379, 382, 394, 395, 400
*Surface, type=ELEMENT, name=_PickedSurf10, internal
__PickedSurf10_S4, S4
__PickedSurf10_S2, S2
*End Assembly
** 
** MATERIALS
** 
*Material, name=Material-1
*Elastic
 31.85, 0.3
** 
** INTERACTION PROPERTIES
** 
*surface interaction, name=int, user, properties=4, depvar=1, unsymm
1.0, 
0.0846, 2.75 , 0.01, 20
** 
** BOUNDARY CONDITIONS
** 
** Name: Fixed_Point Type: Displacement/Rotation
*Boundary
_PickedSet11, 1, 1
_PickedSet11, 2, 2
_PickedSet11, 6, 6
** 
** INTERACTIONS
** 
** Interaction: Int-1
*Contact Pair, interaction=int, type=SURFACE TO SURFACE
_PickedSurf10, Solid-1.Solid_Surface
** ----------------------------------------------------------------
** 
** STEP: Approaching
** 
*Step, name=Approaching, nlgeom=YES, inc=10000, unsymm=YES
*Static
0.001, 1., 1e-05, 0.001
** 
** BOUNDARY CONDITIONS
** 
** Name: Loading Type: Displacement/Rotation
*Boundary
_PickedSet12, 2, 2, -7.
** 
** OUTPUT REQUESTS
** 
*Restart, write, frequency=0
** 
** FIELD OUTPUT: F-Output-1
** 
*Output, field, variable=PRESELECT
** 
** HISTORY OUTPUT: Lower
** 
*Output, history
*Contact Output
CAREA, SDV
** 
** HISTORY OUTPUT: Ref_Point
** 
*Node Output, nset=Ref_Point
TF1, TF2
** 
** HISTORY OUTPUT: Upper
** 
*Node Output, nset=Upper
TF1, TF2, U1, U2
** 
** HISTORY OUTPUT: H-Output-1
** 
*Output, history, variable=PRESELECT
*End Step
